<?xml version="1.0" encoding="UTF-8"?>

<!-- generated on 2026-03-14 19:27:04.323642 by Eclipse SUMO randomTrips.py v1_26_0+0000-fa7df22d7f1
<configuration>
    <net-file value="C:\Ritika\indore hacky\dynamic-rerouting\data\bangalore.net.xml"/>
    <route-file value="C:\Ritika\indore hacky\dynamic-rerouting\data\bangalore.rou.xml"/>
    <end value="1000.0"/>
    <period value="1.5"/>
</configuration>
-->

<routes xmlns:xsi="http://www.w3.org/2001/XMLSchema-instance" xsi:noNamespaceSchemaLocation="http://sumo.dlr.de/xsd/routes_file.xsd">
    <trip id="0" depart="0.00" from="239572011#4" to="-1095075520#1"/>
    <trip id="1" depart="1.50" from="-38541568#1" to="-36907559#2"/>
    <trip id="2" depart="3.00" from="36907529#14" to="36332256#0"/>
    <trip id="3" depart="4.50" from="405141229#2" to="-172851206#3"/>
    <trip id="4" depart="6.00" from="1106057235#1" to="-1098776745"/>
    <trip id="5" depart="7.50" from="-36907533#3" to="1347949977"/>
    <trip id="6" depart="9.00" from="-1095075508" to="-36907533#0"/>
    <trip id="7" depart="10.50" from="251492658#9" to="172903807#2"/>
    <trip id="8" depart="12.00" from="-36907535#0" to="23029690#1"/>
    <trip id="9" depart="13.50" from="38541559#1" to="-1094460065#0"/>
    <trip id="10" depart="15.00" from="38541555#2" to="36897655#5"/>
    <trip id="11" depart="16.50" from="-411092288" to="-36332257#0"/>
    <trip id="12" depart="18.00" from="758967734#2" to="-758967740#0"/>
    <trip id="13" depart="19.50" from="-1379232589#1" to="-175392010#0"/>
    <trip id="14" depart="21.00" from="38757917#6" to="23029715#4"/>
    <trip id="15" depart="22.50" from="38541558#1" to="36907510#9"/>
    <trip id="16" depart="24.00" from="107215088#2" to="175391972#8"/>
    <trip id="17" depart="25.50" from="38757897#3" to="23081473#7"/>
    <trip id="18" depart="27.00" from="38758709#1" to="224618934#9"/>
    <trip id="19" depart="28.50" from="36897656#35" to="-112028499#2"/>
    <trip id="20" depart="30.00" from="-36907541#11" to="-38757924#0"/>
    <trip id="21" depart="31.50" from="-1227730738#0" to="-37763920"/>
    <trip id="22" depart="33.00" from="-164042296#0" to="-38757906#1"/>
    <trip id="23" depart="34.50" from="23515739#2" to="1091198034#3"/>
    <trip id="24" depart="36.00" from="-38541555#0" to="553253478#1"/>
    <trip id="25" depart="37.50" from="251492658#22" to="23030059#4"/>
    <trip id="26" depart="39.00" from="-328839327#1" to="36907510#7"/>
    <trip id="27" depart="40.50" from="-28126801#10" to="1094730012#0"/>
    <trip id="28" depart="42.00" from="91890608#4" to="24296042#3"/>
    <trip id="29" depart="43.50" from="175392001#1" to="36852351#4"/>
    <trip id="30" depart="45.00" from="38757909#0" to="36965407#1"/>
    <trip id="31" depart="46.50" from="-36907541#5" to="-1098787301#1"/>
    <trip id="32" depart="48.00" from="-38757939#0" to="-38757895#6"/>
    <trip id="33" depart="49.50" from="-36907529#14" to="638928392#4"/>
    <trip id="34" depart="51.00" from="38766664#2" to="-38766673#0"/>
    <trip id="35" depart="52.50" from="28126801#8" to="1095458730"/>
    <trip id="36" depart="54.00" from="48166762#22" to="1182221973#2"/>
    <trip id="37" depart="55.50" from="-38541551#7" to="-38541552#3"/>
    <trip id="38" depart="57.00" from="175392015#5" to="-38541583"/>
    <trip id="39" depart="58.50" from="23029281#5" to="45308260#3"/>
    <trip id="40" depart="60.00" from="1094732593#1" to="-36907550#0"/>
    <trip id="41" depart="61.50" from="995260026#4" to="1373661996"/>
    <trip id="42" depart="63.00" from="-1361746443#1" to="-112380266#1"/>
    <trip id="43" depart="64.50" from="-175391972#3" to="23134709#1"/>
    <trip id="44" depart="66.00" from="37763930#0" to="111867007#1"/>
    <trip id="45" depart="67.50" from="-112657837#1" to="1094730021"/>
    <trip id="46" depart="69.00" from="991536562#0" to="150785560#1"/>
    <trip id="47" depart="70.50" from="763290547#1" to="38758709#1"/>
    <trip id="48" depart="72.00" from="-1094716499#4" to="36897681#3"/>
    <trip id="49" depart="73.50" from="36851745#1" to="171887405#2"/>
    <trip id="50" depart="75.00" from="-38541555#0" to="244304927"/>
    <trip id="51" depart="76.50" from="-175391977" to="1125877418#0"/>
    <trip id="52" depart="78.00" from="113287091#2" to="758944900#1"/>
    <trip id="53" depart="79.50" from="38766662" to="-38541585#0"/>
    <trip id="54" depart="81.00" from="1313237387#0" to="-36897678#1"/>
    <trip id="55" depart="82.50" from="48166762#11" to="38762870#2"/>
    <trip id="56" depart="84.00" from="-38757907#4" to="239572011#4"/>
    <trip id="57" depart="85.50" from="23030057#2" to="-332394783"/>
    <trip id="58" depart="87.00" from="36907549#2" to="172851206#0"/>
    <trip id="59" depart="88.50" from="375964868#4" to="152582846#2"/>
    <trip id="60" depart="90.00" from="-1013704525#2" to="-45308260#5"/>
    <trip id="61" depart="91.50" from="-1094732594" to="52244636#0"/>
    <trip id="62" depart="93.00" from="38766673#0" to="38757899#1"/>
    <trip id="63" depart="94.50" from="-38757923#2" to="-1136281758#5"/>
    <trip id="64" depart="96.00" from="38766668" to="688688870#1"/>
    <trip id="65" depart="97.50" from="-1308629017#4" to="1297594197#1"/>
    <trip id="66" depart="99.00" from="-1165315511" to="36907547#3"/>
    <trip id="67" depart="100.50" from="36907555" to="-23081595#0"/>
    <trip id="68" depart="102.00" from="1214076610#2" to="174482797#4"/>
    <trip id="69" depart="103.50" from="-38541551#7" to="38766656#1"/>
    <trip id="70" depart="105.00" from="1106057236#5" to="-36907543"/>
    <trip id="71" depart="106.50" from="171887405#16" to="36907513"/>
    <trip id="72" depart="108.00" from="-36897683#5" to="-38766664#0"/>
    <trip id="73" depart="109.50" from="112028491#6" to="1387723070#3"/>
    <trip id="74" depart="111.00" from="-175392021#3" to="-36907562"/>
    <trip id="75" depart="112.50" from="-405141229#0" to="23029284#5"/>
    <trip id="76" depart="114.00" from="-36907542#0" to="-36907552#1"/>
    <trip id="77" depart="115.50" from="-1165354788" to="23515292#0"/>
    <trip id="78" depart="117.00" from="38757939#1" to="-1312351315"/>
    <trip id="79" depart="118.50" from="-36907549#4" to="328839327#0"/>
    <trip id="80" depart="120.00" from="-36907529#8" to="-23134709#4"/>
    <trip id="81" depart="121.50" from="553253466#0" to="213036155#1"/>
    <trip id="82" depart="123.00" from="1205171801" to="37763917#4"/>
    <trip id="83" depart="124.50" from="38541558#10" to="-36907527"/>
    <trip id="84" depart="126.00" from="-1379232589#4" to="1124838025#4"/>
    <trip id="85" depart="127.50" from="1106110231#0" to="1205171802#3"/>
    <trip id="86" depart="129.00" from="36907510#6" to="359476590#1"/>
    <trip id="87" depart="130.50" from="766406229#6" to="-175392014#1"/>
    <trip id="88" depart="132.00" from="1094745005#0" to="-763175327#3"/>
    <trip id="89" depart="133.50" from="38758709#1" to="-38541557#2"/>
    <trip id="90" depart="135.00" from="-36897669#3" to="1148515025#1"/>
    <trip id="91" depart="136.50" from="1106057235#0" to="-38757907#1"/>
    <trip id="92" depart="138.00" from="-377262076#1" to="52033011#10"/>
    <trip id="93" depart="139.50" from="1125542419#0" to="38758710#1"/>
    <trip id="94" depart="141.00" from="172955372#2" to="-112657835#11"/>
    <trip id="95" depart="142.50" from="995260037#0" to="38757904#2"/>
    <trip id="96" depart="144.00" from="763284659#2" to="52033011#4"/>
    <trip id="97" depart="145.50" from="38757920#0" to="-36897656#6"/>
    <trip id="98" depart="147.00" from="1249875207" to="-36907545#5"/>
    <trip id="99" depart="148.50" from="1094732600#1" to="-1158083354#1"/>
    <trip id="100" depart="150.00" from="1086212781#2" to="781001561#4"/>
    <trip id="101" depart="151.50" from="-38541552#1" to="37763917#2"/>
    <trip id="102" depart="153.00" from="1136281758#3" to="111867007#6"/>
    <trip id="103" depart="154.50" from="758967735" to="995213649"/>
    <trip id="104" depart="156.00" from="175391972#7" to="36897678#1"/>
    <trip id="105" depart="157.50" from="-23515292#9" to="-38757939#0"/>
    <trip id="106" depart="159.00" from="763284659#0" to="23029249#1"/>
    <trip id="107" depart="160.50" from="171887405#8" to="36907536#5"/>
    <trip id="108" depart="162.00" from="-112380266#2" to="23029282#3"/>
    <trip id="109" depart="163.50" from="1316311290" to="38757924#2"/>
    <trip id="110" depart="165.00" from="-251492658#1" to="763175324#3"/>
    <trip id="111" depart="166.50" from="-1227730738#1" to="-36907511"/>
    <trip id="112" depart="168.00" from="23029699#0" to="362206700#9"/>
    <trip id="113" depart="169.50" from="-36907547#2" to="-23030057#7"/>
    <trip id="114" depart="171.00" from="401997649" to="-38541552#2"/>
    <trip id="115" depart="172.50" from="23029696#6" to="23081479#2"/>
    <trip id="116" depart="174.00" from="1098787347" to="23029282#11"/>
    <trip id="117" depart="175.50" from="1393189725#2" to="544761382#2"/>
    <trip id="118" depart="177.00" from="-36907510#7" to="36897677#1"/>
    <trip id="119" depart="178.50" from="-36907550#0" to="1095458730"/>
    <trip id="120" depart="180.00" from="332907586#1" to="-38762860#0"/>
    <trip id="121" depart="181.50" from="-38757940" to="36907540#4"/>
    <trip id="122" depart="183.00" from="-1168178847#0" to="1182221971#1"/>
    <trip id="123" depart="184.50" from="995260030" to="995260026#1"/>
    <trip id="124" depart="186.00" from="-1168178848#0" to="-36907545#2"/>
    <trip id="125" depart="187.50" from="-38541552#1" to="544761377#1"/>
    <trip id="126" depart="189.00" from="38773814#3" to="38773285#1"/>
    <trip id="127" depart="190.50" from="1054230460#0" to="-36897653#1"/>
    <trip id="128" depart="192.00" from="38757902#1" to="36897656#31"/>
    <trip id="129" depart="193.50" from="23038845#2" to="91890599#6"/>
    <trip id="130" depart="195.00" from="28126801#16" to="-1094716499#0"/>
    <trip id="131" depart="196.50" from="38541574#3" to="-38762852#1"/>
    <trip id="132" depart="198.00" from="324045665#2" to="638928391"/>
    <trip id="133" depart="199.50" from="-23029715#3" to="-23029699#2"/>
    <trip id="134" depart="201.00" from="-172955372#3" to="175391983"/>
    <trip id="135" depart="202.50" from="-38541562#1" to="23030050#0"/>
    <trip id="136" depart="204.00" from="36897677#5" to="-36907536#4"/>
    <trip id="137" depart="205.50" from="23515292#6" to="-38541585#2"/>
    <trip id="138" depart="207.00" from="38757917#1" to="-172955372#6"/>
    <trip id="139" depart="208.50" from="1106110231#0" to="-38757905#0"/>
    <trip id="140" depart="210.00" from="-1094101652" to="36907574#5"/>
    <trip id="141" depart="211.50" from="36907531#2" to="175391972#6"/>
    <trip id="142" depart="213.00" from="1109946344#2" to="-1094729984"/>
    <trip id="143" depart="214.50" from="-1183372579#0" to="391160931#11"/>
    <trip id="144" depart="216.00" from="462585098#0" to="172920283"/>
    <trip id="145" depart="217.50" from="38757903#1" to="23029281#6"/>
    <trip id="146" depart="219.00" from="-23081595#5" to="-23081545#1"/>
    <trip id="147" depart="220.50" from="-38757923#5" to="45308260#8"/>
    <trip id="148" depart="222.00" from="38540557#13" to="38758709#0"/>
    <trip id="149" depart="223.50" from="45308260#7" to="-36907541#7"/>
    <trip id="150" depart="225.00" from="-377262076#0" to="-175392019#3"/>
    <trip id="151" depart="226.50" from="377261618#1" to="391160931#16"/>
    <trip id="152" depart="228.00" from="1095075509" to="23081501#4"/>
    <trip id="153" depart="229.50" from="-23515292#8" to="542070644#2"/>
    <trip id="154" depart="231.00" from="38762860#2" to="764329022#3"/>
    <trip id="155" depart="232.50" from="38541562#0" to="38773814#5"/>
    <trip id="156" depart="234.00" from="-1094745010#1" to="36907529#16"/>
    <trip id="157" depart="235.50" from="-38766666#2" to="542070644#5"/>
    <trip id="158" depart="237.00" from="38541551#3" to="38762860#2"/>
    <trip id="159" depart="238.50" from="38541562#0" to="-38757895#2"/>
    <trip id="160" depart="240.00" from="37763921#6" to="-213042770#0"/>
    <trip id="161" depart="241.50" from="38762870#6" to="38757939#0"/>
    <trip id="162" depart="243.00" from="-36907536#3" to="38541574#0"/>
    <trip id="163" depart="244.50" from="1148515025#7" to="-38762869#4"/>
    <trip id="164" depart="246.00" from="38540557#10" to="-377261618#0"/>
    <trip id="165" depart="247.50" from="-1094745005#2" to="-36907529#17"/>
    <trip id="166" depart="249.00" from="-38766657#2" to="38762860#3"/>
    <trip id="167" depart="250.50" from="763175329#5" to="-38757907#5"/>
    <trip id="168" depart="252.00" from="24296042#6" to="1098770421"/>
    <trip id="169" depart="253.50" from="766406223#0" to="171887405#18"/>
    <trip id="170" depart="255.00" from="638928392#0" to="-23029699#1"/>
    <trip id="171" depart="256.50" from="763290544#3" to="-36897678#1"/>
    <trip id="172" depart="258.00" from="763175325#0" to="-38541588"/>
    <trip id="173" depart="259.50" from="-173470557#1" to="1125692661#0"/>
    <trip id="174" depart="261.00" from="36907510#4" to="-38766667"/>
    <trip id="175" depart="262.50" from="23029715#5" to="1379232589#12"/>
    <trip id="176" depart="264.00" from="1092038675#0" to="224618934#6"/>
    <trip id="177" depart="265.50" from="-37763924#1" to="36897662#8"/>
    <trip id="178" depart="267.00" from="-1065391880#0" to="52033011#19"/>
    <trip id="179" depart="268.50" from="171887405#12" to="36897679#1"/>
    <trip id="180" depart="270.00" from="36907531#5" to="332907586#0"/>
    <trip id="181" depart="271.50" from="-995260026#6" to="-1308629017#2"/>
    <trip id="182" depart="273.00" from="326200329#0" to="-688688870#0"/>
    <trip id="183" depart="274.50" from="-38757932#1" to="38757918"/>
    <trip id="184" depart="276.00" from="36897679#1" to="-38762860#2"/>
    <trip id="185" depart="277.50" from="-38757924#1" to="1098787340"/>
    <trip id="186" depart="279.00" from="1094745003#1" to="-38757936#0"/>
    <trip id="187" depart="280.50" from="-213087110#1" to="1114975035#2"/>
    <trip id="188" depart="282.00" from="638928392#12" to="36332256#2"/>
    <trip id="189" depart="283.50" from="461556535#15" to="23076927#8"/>
    <trip id="190" depart="285.00" from="-38757908#4" to="173470557#1"/>
    <trip id="191" depart="286.50" from="-1013704525#1" to="-38757920#1"/>
    <trip id="192" depart="288.00" from="1114975035#0" to="23029251#3"/>
    <trip id="193" depart="289.50" from="28126801#5" to="1205167663"/>
    <trip id="194" depart="291.00" from="1124838025#6" to="-36907545#5"/>
    <trip id="195" depart="292.50" from="1205171802#1" to="461556535#11"/>
    <trip id="196" depart="294.00" from="38540557#13" to="-36897666#0"/>
    <trip id="197" depart="295.50" from="-1308629017#1" to="1379232589#6"/>
    <trip id="198" depart="297.00" from="23515292#12" to="-758944903"/>
    <trip id="199" depart="298.50" from="38541578#0" to="36907540#1"/>
    <trip id="200" depart="300.00" from="338941361#2" to="-36907562"/>
    <trip id="201" depart="301.50" from="-36897681#1" to="-1095075513#1"/>
    <trip id="202" depart="303.00" from="-36907564#2" to="124316745#1"/>
    <trip id="203" depart="304.50" from="38757923#0" to="-131663296#0"/>
    <trip id="204" depart="306.00" from="1098776747" to="234946738#5"/>
    <trip id="205" depart="307.50" from="-36897676#0" to="36897655#17"/>
    <trip id="206" depart="309.00" from="1308629017#2" to="-38541551#1"/>
    <trip id="207" depart="310.50" from="28451729" to="-1094460062#0"/>
    <trip id="208" depart="312.00" from="36907540#0" to="36907565"/>
    <trip id="209" depart="313.50" from="-172955372#1" to="112028483#1"/>
    <trip id="210" depart="315.00" from="-363449251#2" to="763048420#0"/>
    <trip id="211" depart="316.50" from="1379232589#20" to="-112657835#10"/>
    <trip id="212" depart="318.00" from="-377262075#2" to="38757919#0"/>
    <trip id="213" depart="319.50" from="1148155466#0" to="38541551#0"/>
    <trip id="214" depart="321.00" from="328836685#6" to="91890603"/>
    <trip id="215" depart="322.50" from="23029699#1" to="705023783#1"/>
    <trip id="216" depart="324.00" from="405141229#0" to="23076927#11"/>
    <trip id="217" depart="325.50" from="36897678#3" to="1347255640#0"/>
    <trip id="218" depart="327.00" from="38757898#3" to="172955372#7"/>
    <trip id="219" depart="328.50" from="45308260#1" to="36907533#3"/>
    <trip id="220" depart="330.00" from="1205171802#6" to="-38541574#2"/>
    <trip id="221" depart="331.50" from="-377261618#1" to="239572010#5"/>
    <trip id="222" depart="333.00" from="36907555" to="143368260#2"/>
    <trip id="223" depart="334.50" from="23081595#5" to="-38757904#0"/>
    <trip id="224" depart="336.00" from="-1209312206" to="-38757919#0"/>
    <trip id="225" depart="337.50" from="-38541561#1" to="-405141229#4"/>
    <trip id="226" depart="339.00" from="171887405#19" to="-251492658#0"/>
    <trip id="227" depart="340.50" from="-36907544" to="36897653#7"/>
    <trip id="228" depart="342.00" from="36897656#8" to="-1213762900"/>
    <trip id="229" depart="343.50" from="1095075512" to="172891315"/>
    <trip id="230" depart="345.00" from="1098787264#0" to="-36907540#0"/>
    <trip id="231" depart="346.50" from="1101945530#2" to="462585105#2"/>
    <trip id="232" depart="348.00" from="23029281#3" to="36897655#12"/>
    <trip id="233" depart="349.50" from="38757930#1" to="36907555"/>
    <trip id="234" depart="351.00" from="1091198028#0" to="-1094460062#2"/>
    <trip id="235" depart="352.50" from="-758944893" to="36907541#3"/>
    <trip id="236" depart="354.00" from="38757926#2" to="758944898#1"/>
    <trip id="237" depart="355.50" from="1098787345#2" to="36907536#3"/>
    <trip id="238" depart="357.00" from="172891314" to="23029715#2"/>
    <trip id="239" depart="358.50" from="-36907535#1" to="-36907550#0"/>
    <trip id="240" depart="360.00" from="112028483#2" to="-1098776742"/>
    <trip id="241" depart="361.50" from="-38773814#2" to="363449251#2"/>
    <trip id="242" depart="363.00" from="1094745010#1" to="-36897656#35"/>
    <trip id="243" depart="364.50" from="1182221973#6" to="-23081545#2"/>
    <trip id="244" depart="366.00" from="23081501#3" to="-1095458735#2"/>
    <trip id="245" depart="367.50" from="1094729986" to="180375724#0"/>
    <trip id="246" depart="369.00" from="-1095075510#0" to="250717622#1"/>
    <trip id="247" depart="370.50" from="-23030050#1" to="1183372579#2"/>
    <trip id="248" depart="372.00" from="-111867014#2" to="1094730011"/>
    <trip id="249" depart="373.50" from="-36907529#16" to="-48842836#0"/>
    <trip id="250" depart="375.00" from="36907547#5" to="1094730011"/>
    <trip id="251" depart="376.50" from="36907540#4" to="38757900#0"/>
    <trip id="252" depart="378.00" from="-37763920" to="-1379232589#6"/>
    <trip id="253" depart="379.50" from="-1094732594" to="172851206#0"/>
    <trip id="254" depart="381.00" from="995260042" to="1056563196#1"/>
    <trip id="255" depart="382.50" from="251495490#0" to="377261618#3"/>
    <trip id="256" depart="384.00" from="26179365#0" to="36907541#7"/>
    <trip id="257" depart="385.50" from="692796522#0" to="-36907533#2"/>
    <trip id="258" depart="387.00" from="-1094732597" to="-328839331#0"/>
    <trip id="259" depart="388.50" from="-213087087#0" to="328839327#1"/>
    <trip id="260" depart="390.00" from="175392021#0" to="-36907549#1"/>
    <trip id="261" depart="391.50" from="36897656#0" to="36907559#1"/>
    <trip id="262" depart="393.00" from="-285367759#3" to="23030057#3"/>
    <trip id="263" depart="394.50" from="36907536#4" to="-23029282#9"/>
    <trip id="264" depart="396.00" from="38541582#1" to="763175329#0"/>
    <trip id="265" depart="397.50" from="-172955372#7" to="-1095075527"/>
    <trip id="266" depart="399.00" from="-38757929#3" to="36332256#2"/>
    <trip id="267" depart="400.50" from="760700376#0" to="1095458736"/>
    <trip id="268" depart="402.00" from="36897675#0" to="-1361746443#3"/>
    <trip id="269" depart="403.50" from="36884561#2" to="23134709#0"/>
    <trip id="270" depart="405.00" from="-172851206#1" to="36913434#1"/>
    <trip id="271" depart="406.50" from="38757923#2" to="23029710#11"/>
    <trip id="272" depart="408.00" from="-175392021#3" to="766406976#1"/>
    <trip id="273" depart="409.50" from="377262076#0" to="1047141876#1"/>
    <trip id="274" depart="411.00" from="1109946346#1" to="1094460059"/>
    <trip id="275" depart="412.50" from="132191814#8" to="-973200337"/>
    <trip id="276" depart="414.00" from="38757923#0" to="38541586"/>
    <trip id="277" depart="415.50" from="-172891317#0" to="763175324#3"/>
    <trip id="278" depart="417.00" from="23515739#2" to="38757896#1"/>
    <trip id="279" depart="418.50" from="36897662#1" to="1126139631#0"/>
    <trip id="280" depart="420.00" from="36907524" to="763175329#3"/>
    <trip id="281" depart="421.50" from="-38541558#8" to="38541558#5"/>
    <trip id="282" depart="423.00" from="171887405#1" to="1280466957#0"/>
    <trip id="283" depart="424.50" from="112028483#1" to="36907517"/>
    <trip id="284" depart="426.00" from="-38541558#1" to="38757923#6"/>
    <trip id="285" depart="427.50" from="38757898#4" to="-172851206#2"/>
    <trip id="286" depart="429.00" from="38773814#6" to="-38541551#1"/>
    <trip id="287" depart="430.50" from="1168178848#1" to="23038848#2"/>
    <trip id="288" depart="432.00" from="1086212781#2" to="-1098770448"/>
    <trip id="289" depart="433.50" from="38757923#5" to="-36897683#4"/>
    <trip id="290" depart="435.00" from="-36907529#18" to="38540557#7"/>
    <trip id="291" depart="436.50" from="-411092288" to="38773814#1"/>
    <trip id="292" depart="438.00" from="36897656#19" to="-38757904#6"/>
    <trip id="293" depart="439.50" from="-1094460067#1" to="688824223#3"/>
    <trip id="294" depart="441.00" from="-1308629017#4" to="36897681#0"/>
    <trip id="295" depart="442.50" from="1276784690#0" to="36907545#7"/>
    <trip id="296" depart="444.00" from="36884561#2" to="251492658#16"/>
    <trip id="297" depart="445.50" from="1297594196#1" to="37763931"/>
    <trip id="298" depart="447.00" from="-1379232589#10" to="-36907555"/>
    <trip id="299" depart="448.50" from="23029249#1" to="1238638852#3"/>
    <trip id="300" depart="450.00" from="148016866#1" to="112028489#0"/>
    <trip id="301" depart="451.50" from="36907535#3" to="-692796522#0"/>
    <trip id="302" depart="453.00" from="36897656#28" to="-38757898#5"/>
    <trip id="303" depart="454.50" from="-37763917#5" to="-23030059#2"/>
    <trip id="304" depart="456.00" from="-36897673#1" to="-23030057#5"/>
    <trip id="305" depart="457.50" from="154340361#7" to="36907549#1"/>
    <trip id="306" depart="459.00" from="-36897656#4" to="-36907547#3"/>
    <trip id="307" depart="460.50" from="1249434050#0" to="36897705#2"/>
    <trip id="308" depart="462.00" from="764329022#1" to="1461533619#6"/>
    <trip id="309" depart="463.50" from="-38541585#0" to="-175392015#5"/>
    <trip id="310" depart="465.00" from="-36897675#1" to="-377261618#0"/>
    <trip id="311" depart="466.50" from="-36897656#11" to="-1094730018"/>
    <trip id="312" depart="468.00" from="154340361#0" to="-38757903#3"/>
    <trip id="313" depart="469.50" from="764329019#1" to="175391984"/>
    <trip id="314" depart="471.00" from="36897655#20" to="-23081504#3"/>
    <trip id="315" depart="472.50" from="38762869#0" to="1308725870#0"/>
    <trip id="316" depart="474.00" from="38762876#1" to="217169235#2"/>
    <trip id="317" depart="475.50" from="1184391536#0" to="112657835#9"/>
    <trip id="318" depart="477.00" from="-36897656#35" to="-112657835#2"/>
    <trip id="319" depart="478.50" from="638928392#15" to="124316745#7"/>
    <trip id="320" depart="480.00" from="38541586" to="1098776729"/>
    <trip id="321" depart="481.50" from="-1182190937#1" to="234946738#2"/>
    <trip id="322" depart="483.00" from="-112028491#2" to="-326200328#0"/>
    <trip id="323" depart="484.50" from="175392019#0" to="-38762868#3"/>
    <trip id="324" depart="486.00" from="91892803#8" to="-23030057#0"/>
    <trip id="325" depart="487.50" from="36907552#1" to="23030052#3"/>
    <trip id="326" depart="489.00" from="37763927#1" to="-36907574#0"/>
    <trip id="327" depart="490.50" from="1393189725#1" to="1150927562#2"/>
    <trip id="328" depart="492.00" from="1124838025#8" to="38758708#1"/>
    <trip id="329" depart="493.50" from="91890608#6" to="-38762869#5"/>
    <trip id="330" depart="495.00" from="23081479#1" to="23038845#2"/>
    <trip id="331" depart="496.50" from="36907530#0" to="688824223#1"/>
    <trip id="332" depart="498.00" from="-36907522" to="-36907542#0"/>
    <trip id="333" depart="499.50" from="30332639" to="-36883291#1"/>
    <trip id="334" depart="501.00" from="-36332256#0" to="-135997372#2"/>
    <trip id="335" depart="502.50" from="-1067081400#1" to="1150927562#2"/>
    <trip id="336" depart="504.00" from="23029696#3" to="-38757927"/>
    <trip id="337" depart="505.50" from="-36907545#0" to="36897662#0"/>
    <trip id="338" depart="507.00" from="36897656#28" to="1165354788"/>
    <trip id="339" depart="508.50" from="36882310#3" to="52033011#13"/>
    <trip id="340" depart="510.00" from="37763922#1" to="23081595#4"/>
    <trip id="341" depart="511.50" from="30332854#3" to="544761380"/>
    <trip id="342" depart="513.00" from="1109911787#2" to="172903807#0"/>
    <trip id="343" depart="514.50" from="251492658#21" to="46728567#1"/>
    <trip id="344" depart="516.00" from="38757895#3" to="-1313237387#1"/>
    <trip id="345" depart="517.50" from="-28126801#6" to="-38762870#4"/>
    <trip id="346" depart="519.00" from="36907537#0" to="208745497#0"/>
    <trip id="347" depart="520.50" from="-38757897#3" to="-23081501#0"/>
    <trip id="348" depart="522.00" from="36882311#4" to="36897656#11"/>
    <trip id="349" depart="523.50" from="638928392#3" to="132191814#2"/>
    <trip id="350" depart="525.00" from="1308629005" to="-1379232589#21"/>
    <trip id="351" depart="526.50" from="-1098776748" to="1124838025#8"/>
    <trip id="352" depart="528.00" from="-38762868#2" to="-38541558#5"/>
    <trip id="353" depart="529.50" from="-1361746443#2" to="763175325#2"/>
    <trip id="354" depart="531.00" from="38757904#2" to="224618934#1"/>
    <trip id="355" depart="532.50" from="730432812#0" to="995260041"/>
    <trip id="356" depart="534.00" from="332907586#3" to="-38757898#0"/>
    <trip id="357" depart="535.50" from="-1098776761" to="36907545#0"/>
    <trip id="358" depart="537.00" from="1190067592" to="26283603"/>
    <trip id="359" depart="538.50" from="48166762#5" to="-36897683#3"/>
    <trip id="360" depart="540.00" from="23029281#9" to="23515739#1"/>
    <trip id="361" depart="541.50" from="1299791160" to="-172955372#2"/>
    <trip id="362" depart="543.00" from="-52060801" to="-758944898#1"/>
    <trip id="363" depart="544.50" from="328839327#3" to="38757936#0"/>
    <trip id="364" depart="546.00" from="-38766660" to="36897653#6"/>
    <trip id="365" depart="547.50" from="-38757897#0" to="661907780#0"/>
    <trip id="366" depart="549.00" from="38541568#1" to="174482797#5"/>
    <trip id="367" depart="550.50" from="1136281758#3" to="-38766673#0"/>
    <trip id="368" depart="552.00" from="-38762869#0" to="763290547#1"/>
    <trip id="369" depart="553.50" from="1094745010#0" to="1379232589#3"/>
    <trip id="370" depart="555.00" from="91890599#6" to="298037893#1"/>
    <trip id="371" depart="556.50" from="171887405#9" to="1106057236#6"/>
    <trip id="372" depart="558.00" from="-36897662#2" to="1091198030#0"/>
    <trip id="373" depart="559.50" from="36907545#0" to="23081595#6"/>
    <trip id="374" depart="561.00" from="36907547#0" to="-36907536#4"/>
    <trip id="375" depart="562.50" from="172903807#3" to="52033011#9"/>
    <trip id="376" depart="564.00" from="112028491#6" to="36897655#5"/>
    <trip id="377" depart="565.50" from="-175392021#5" to="764329019#0"/>
    <trip id="378" depart="567.00" from="23030057#1" to="-37763932"/>
    <trip id="379" depart="568.50" from="-251492658#12" to="175391972#3"/>
    <trip id="380" depart="570.00" from="173470557#1" to="-173470557#1"/>
    <trip id="381" depart="571.50" from="91892803#0" to="48166762#17"/>
    <trip id="382" depart="573.00" from="1151681832#1" to="-23029715#5"/>
    <trip id="383" depart="574.50" from="38757900#1" to="1316313188"/>
    <trip id="384" depart="576.00" from="36897677#1" to="1361746443#4"/>
    <trip id="385" depart="577.50" from="-38541565#2" to="38757903#1"/>
    <trip id="386" depart="579.00" from="764500256#1" to="-38541551#0"/>
    <trip id="387" depart="580.50" from="172955372#6" to="1094732596"/>
    <trip id="388" depart="582.00" from="38766673#2" to="38762860#2"/>
    <trip id="389" depart="583.50" from="-38541570#0" to="37763926#1"/>
    <trip id="390" depart="585.00" from="1098776761" to="544761382#1"/>
    <trip id="391" depart="586.50" from="133632534#3" to="38541584#0"/>
    <trip id="392" depart="588.00" from="-38541585#0" to="-38758714#0"/>
    <trip id="393" depart="589.50" from="23029282#7" to="995260037#0"/>
    <trip id="394" depart="591.00" from="1280466958#1" to="-285367759#3"/>
    <trip id="395" depart="592.50" from="171887405#12" to="-995260031"/>
    <trip id="396" depart="594.00" from="173470557#0" to="172891316#3"/>
    <trip id="397" depart="595.50" from="1136281758#4" to="-421116826#1"/>
    <trip id="398" depart="597.00" from="-36897662#8" to="36897655#21"/>
    <trip id="399" depart="598.50" from="208745497#0" to="-37763921#2"/>
    <trip id="400" depart="600.00" from="36965407#1" to="-112028491#2"/>
    <trip id="401" depart="601.50" from="36907534#3" to="36897656#4"/>
    <trip id="402" depart="603.00" from="38541565#0" to="1094745003#1"/>
    <trip id="403" depart="604.50" from="326200328#0" to="38541584#1"/>
    <trip id="404" depart="606.00" from="764500256#2" to="1312841562#0"/>
    <trip id="405" depart="607.50" from="-1098776738" to="132191815"/>
    <trip id="406" depart="609.00" from="23029284#4" to="38762869#8"/>