<?xml version="1.0" encoding="UTF-8"?>

<!-- generated on 2026-03-14 19:27:07.076800 by Eclipse SUMO randomTrips.py v1_26_0+0000-fa7df22d7f1
<configuration>
    <net-file value="C:\Ritika\indore hacky\dynamic-rerouting\data\bangalore.net.xml"/>
    <route-file value="C:\Ritika\indore hacky\dynamic-rerouting\data\bangalore.rou.xml"/>
    <end value="1000.0"/>
    <period value="1.5"/>
</configuration>
-->

<!-- generated on 2026-03-14T19:27:05.905169+05:30 by Eclipse SUMO duarouter 1.26.0
<duarouterConfiguration xmlns:xsi="http://www.w3.org/2001/XMLSchema-instance" xsi:noNamespaceSchemaLocation="http://sumo.dlr.de/xsd/duarouterConfiguration.xsd">

    <input>
        <net-file value="C:\Ritika\indore hacky\dynamic-rerouting\data\bangalore.net.xml"/>
        <route-files value="trips.trips.xml"/>
    </input>

    <output>
        <output-file value="C:\Ritika\indore hacky\dynamic-rerouting\data\bangalore.rou.xml"/>
        <alternatives-output value="NUL"/>
    </output>

    <time>
        <begin value="0"/>
        <end value="1000.0"/>
    </time>

    <report>
        <no-warnings value="true"/>
        <ignore-errors value="true"/>
        <no-step-log value="true"/>
    </report>

</duarouterConfiguration>
-->

<routes xmlns:xsi="http://www.w3.org/2001/XMLSchema-instance" xsi:noNamespaceSchemaLocation="http://sumo.dlr.de/xsd/routes_file.xsd">
    <vehicle id="0" depart="0.00">
        <route edges="239572011#4 239572011#6 171887405#1 171887405#2 171887405#4 171887405#5 171887405#6 171887405#7 171887405#8 171887405#9 171887405#12 171887405#13 171887405#15 171887405#16 171887405#17 171887405#18 171887405#19 171887405#20 171887405#21 763175328#0 763175328#2 763175328#3 763175328#4 763175329#0 763175329#1 763175329#2 763175329#3 763175329#5 763175329#6 1452617367 1452617368 498553874#0 498553874#1 375964868#1 375964868#2 375964868#3 375964868#4 375964868#5 375964868#6 375964868#7 375964868#8 224618934#1 224618934#2 224618934#3 224618934#5 224618934#6 224618934#7 224618934#8 224618934#9 224618934#10 1311251824#0 1311251823#0 1311251823#1 148016866#0 148016866#1 36897704#0 36897704#1 36897704#2 638928393#0 638928393#1 638928393#3 36897679#1 688824223#0 161984942 23076921#0 23076921#1 1347949977 -36907545#11 -36907545#9 -38541575 38541576#0 38541576#1 -1095075520#1"/>
    </vehicle>
    <vehicle id="1" depart="1.50">
        <route edges="-38541568#1 -36907574#5 38541557#0 38541557#2 38541558#5 38541562#0 38541562#1 36897655#5 36897655#6 36897655#7 36897655#9 36897655#10 36907529#15 36907529#16 36907529#17 36907529#18 36907529#19 36907531#7 36907531#9 -36907559#2"/>
    </vehicle>
    <vehicle id="2" depart="3.00">
        <route edges="36907529#14 36907529#15 36907529#16 36907529#17 36907529#18 36907529#19 36907529#20 36907529#21 36907530#0 36907530#1 36907530#2 172891297#1 172891297#2 1086234124#0 1086234124#1 1086234123#0 1086234123#1 244304928#0 244304928#1 244304928#2 244304928#3 244304928#4 310910082#0 310910082#1 310910082#4 763284659#0 763284659#2 763284659#3 763284659#4 1214076611 37898955#0-AddedOnRampEdge 37898955#0 461556532 148016888#0 22893740#0 22893740#1 22893740#2 154340361#0 154340361#1 154340361#2 154340361#3 154340361#5 154340361#6 154340361#7 154340361#9 36882313 1205171800#0 1109911794 1109911788 26283603 1205171802#0 1205171802#1 1205171802#2 1205171802#3 1205171802#4 1205171802#5 1205171802#6 1312434983#0 1312434983#2 1312434983#3 1106110231#0 1106110231#1 1368125926#0 1368125926#1 915684608#0 323813903#2 323813903#3 323813903#4 1148395508#1 107215079#0 107215079#1 107215079#2 107215079#4 544761377#0 544761377#1 544761381 1110192330 1205167663 544761383#0 705023782#1 1125542419#0 1125542419#2 -369380181#0 -36332256#2 -36332256#1 -36332256#0 36332256#0"/>
    </vehicle>
    <vehicle id="3" depart="4.50">
        <route edges="405141229#2 36907542#2 36907535#0 36907535#1 -111867015 36907529#12 36907529#13 36907529#14 36907529#15 36907529#16 36907529#17 36907529#18 36907529#19 36907529#20 36907529#21 36907530#0 36907530#1 36907530#2 172891297#1 172891297#2 1086234124#0 1086234124#1 1086234123#0 1086234123#1 244304928#0 244304928#1 244304928#2 244304928#3 1311251843 688824223#4 688824223#5 172851206#0 172851206#1 172851206#2 172851206#3 -172851206#3"/>
    </vehicle>
    <vehicle id="4" depart="6.00">
        <route edges="1106057235#1 1106057236#2 1106057236#3 1106057236#4 1106057236#5 1106057236#6 23029699#0 23029699#1 23029699#2 23029699#3 23029699#4 1384492968#1 1384492968#2 1049316088#1 1049316088#2 1308654687#0 1308654687#2 161416663#1 1101945532 766406223#0 766406223#2 1373661996 46728567#0 46728567#1 46728567#2 46728567#3 46728567#4 46728567#5 46728567#6 46728567#8 46728567#9 -45308260#10 -45308260#9 -45308260#8 -45308260#7 -45308260#6 -45308260#5 -45308260#3 -45308260#2 -45308260#1 23029710#1 23029710#2 23029710#3 23029710#4 23029710#5 23029710#6 23029710#7 23029710#8 23029710#9 23029710#11 1238638853#2 403473957#0 403473957#2 403473952#1 36851759#0 36851759#1 36851759#2 36851759#3 36851759#4 36851759#5 36851759#6 36851759#8 360675529 224618934#1 224618934#2 224618934#3 224618934#5 224618934#6 224618934#7 224618934#8 224618934#9 224618934#10 1311251824#0 52033011#4 52033011#5 52033011#6 52033011#7 52033011#8 52033011#9 52033011#10 52033011#11 52033011#12 52033011#13 52033011#14 52033011#15 38757917#0 38757917#1 38757917#2 -1098776745"/>
    </vehicle>
    <vehicle id="5" depart="7.50">
        <route edges="-36907533#3 -36907549#3 -36907549#2 36907534#4 36907559#0 36907559#1 36907559#2 -36907531#9 -36907531#7 -36907531#6 -36907531#5 -36907531#3 -36907531#2 -36907531#0 -410858824#1 -410858824#0 -23515292#1 -23515292#0 1347949977"/>
    </vehicle>
    <vehicle id="6" depart="9.00">
        <route edges="-1095075508 1095075506#2 -38541551#2 -38541547#3 -38541547#2 -38541547#1 -38541547#0 36897662#2 36897662#4 36907533#0 -36907533#0"/>
    </vehicle>
    <vehicle id="7" depart="10.50">
        <route edges="251492658#9 38757902#0 38757902#1 38757923#6 38757895#8 251513712#0 251513712#1 375964868#6 375964868#7 133467629 1308725870#4 36852351#0 36852351#1 36852351#3 36852351#4 36852351#5 36852351#6 91894181#0 91894181#2 36971492#0 36971492#1 36853150-AddedOnRampEdge 36853150 1086212781#0 1086212781#2 766406229#0 766406229#1 766406229#2 766406229#3 766406229#4 766406229#6 766406228#0 766406228#1 461556535#0 461556535#1 461556535#6 461556535#8 461556535#9 461556535#10 461556535#11 461556535#12 461556535#13 461556535#14 461556535#15 461556535#16 1307397842#1 1307397842#3 1307397842#4 -1136281758#6 -1136281758#5 -1136281758#4 -1136281758#3 -1136281758#2 -1136281758#1 -1136281758#0 172903807#0 172903807#1 172903807#2"/>
    </vehicle>
    <vehicle id="8" depart="12.00">
        <route edges="-36907535#0 -36907542#2 -36907542#1 -36907542#0 -411092288 36907543 -36897656#26 -36897656#24 -36897656#23 -36897656#22 -36897656#21 -36897656#19 -36897656#17 -36897656#16 -36897656#14 -36897656#12 -36897656#11 -36897656#9 -36897656#8 -36897656#7 -36897656#6 -36897656#5 -36897656#4 -36897656#2 -36897656#0 461556532 148016888#0 22893740#0 22893740#1 22893740#2 154340361#0 154340361#1 154340361#2 154340361#3 154340361#5 154340361#6 154340361#7 154340361#9 36882313 1205171800#0 1109911794 1109911788 26283603 1205171802#0 1205171802#1 1205171802#2 1205171802#3 1205171802#4 1205171802#5 1205171802#6 1312434983#0 1312434983#2 1312434983#3 1106110231#0 1106110231#1 1368125926#0 1368125926#1 915684608#0 323813903#2 323813903#3 323813903#4 1148395508#1 107215079#0 107215079#1 107215079#2 107215079#4 544761377#0 544761377#1 544761381 1110192330 1205167663 544761383#0 705023782#1 1125542419#0 1125542419#2 1125542419#3 1125542419#4 1125542419#5 23029690#0 23029690#1"/>
    </vehicle>
    <vehicle id="9" depart="13.50">
        <route edges="38541559#1 38541558#10 36907545#11 111867007#0 111867007#1 111867007#3 111867007#5 111867007#6 52244624#0 638928393#0 638928393#1 638928393#3 36897679#1 688824223#0 688824223#1 688824223#2 688824223#3 688824223#4 -1094460065#2 -1094460065#1 -1094460065#0"/>
    </vehicle>
    <vehicle id="10" depart="15.00">
        <route edges="38541555#2 38541558#1 38541558#2 38541558#4 38541558#5 38541562#0 38541562#1 36897655#5"/>
    </vehicle>
    <vehicle id="11" depart="16.50">
        <route edges="-411092288 36907543 -36897656#26 -36897656#24 -36897656#23 -36897656#22 -36897656#21 -36897656#19 -36897656#17 -36897656#16 -36897656#14 -36897656#12 -36897656#11 -36897656#9 -36897656#8 -36897656#7 -36897656#6 -36897656#5 -36897656#4 -36897656#2 -36897656#0 461556532 148016888#0 22893740#0 22893740#1 22893740#2 154340361#0 154340361#1 154340361#2 154340361#3 154340361#5 154340361#6 154340361#7 154340361#9 36882313 1205171800#0 1109911794 1109911788 26283603 1205171802#0 1205171802#1 1205171802#2 1205171802#3 1205171802#4 1205171802#5 1205171802#6 1312434983#0 1312434983#2 1312434983#3 1106110231#0 1106110231#1 1368125926#0 1368125926#1 915684608#0 323813903#2 323813903#3 323813903#4 1148395508#1 107215079#0 107215079#1 107215079#2 107215079#4 544761377#0 544761377#1 544761381 1110192330 1205167663 544761383#0 705023782#1 1227562844#1 435249314#1 435249314#2 36332258#1 -36332257#3 -36332257#2 -36332257#1 -36332257#0"/>
    </vehicle>
    <vehicle id="12" depart="18.00">
        <route edges="758967734#2 37763924#2 37763924#3 -37763917#7 -37763917#6 -37763917#5 -37763917#4 -37763917#3 -37763917#2 -37763917#1 -758967740#1 -758967740#0"/>
    </vehicle>
    <vehicle id="13" depart="19.50">
        <route edges="-1379232589#1 -1379232589#0 736430942#0 132191814#0 132191814#1 132191814#2 132191814#4 132191814#5 132191814#6 -213032008 175392018#0 175392018#2 -175392010#0"/>
    </vehicle>
    <vehicle id="14" depart="21.00">
        <route edges="38757917#6 38757904#4 38757904#5 38757904#6 38757895#3 38757905#1 38757905#2 38757905#3 208745497#0 208745497#1 38757909#2 38757909#3 224618934#7 36851745#0 36851745#1 154340361#5 154340361#6 154340361#7 154340361#9 36882313 1205171800#0 1109911794 1109911788 26283603 1205171802#0 1205171802#1 1205171802#2 1205171802#3 1205171802#4 1205171802#5 1205171802#6 1312434983#0 1312434983#2 1312434983#3 1373661996 46728567#0 46728567#1 46728567#2 46728567#3 46728567#4 23029715#1 23029715#2 23029715#3 23029715#4"/>
    </vehicle>
    <vehicle id="15" depart="22.50">
        <route edges="38541558#1 -38541558#1 38541555#3 -38541568#2 1094732594 1094732593#2 -36907546#3 -36907546#2 -36907546#1 -36907546#0 36897656#22 36897656#23 36897656#24 -36907522 36907510#9"/>
    </vehicle>
    <vehicle id="16" depart="24.00">
        <route edges="107215088#2 -1125877418#0 -332907586#3 -332907586#2 -332907586#1 -332907586#0 -1125877419 1368125926#1 915684608#0 161416663#1 1101945532 766406223#0 766406223#2 1373661996 46728567#0 46728567#1 46728567#2 46728567#3 46728567#4 46728567#5 46728567#6 46728567#8 46728567#9 -45308260#10 -45308260#9 -45308260#8 -45308260#7 -45308260#6 -45308260#5 -45308260#3 -45308260#2 -45308260#1 23029710#1 23029710#2 23029710#3 23029710#4 23029710#5 23029710#6 23029710#7 23029710#8 23029710#9 23029710#11 1238638853#2 403473957#0 403473957#2 403473952#1 36851759#0 36851759#1 36851759#2 36851759#3 36851759#4 36851759#5 36851759#6 36851759#8 1308725870#0 1231870395#0 38757896#0 38757896#1 -38757907#9 -38757907#8 251492658#7 251492658#8 251492658#9 251492658#10 251492658#11 251492658#12 251492658#13 251492658#14 251492658#15 251492658#16 251492658#17 251492658#18 251492658#19 251492658#21 251492658#22 251492658#23 328836685#8 328836685#10 328836685#11 328836685#12 1154162811#0 763282652#1 736430942#0 132191814#0 132191814#1 132191814#2 132191814#4 -175391972#8 175391972#8"/>
    </vehicle>
    <vehicle id="17" depart="25.50">
        <route edges="38757897#3 298037893#6 298037893#7 298037893#8 298037893#9 1154162811#0 763282652#1 736430942#0 132191814#0 132191814#1 132191814#2 132191814#4 132191814#5 132191814#6 132191814#7 132191814#8 132191814#9 1347255637 763175325#0 763175325#1 763175325#2 763175325#3 763175325#4 763175325#5 182196323#0 182196323#1 182196323#2 182196323#3 182196323#4 182196323#5 182196323#6 182196323#7 182196323#9 182196323#10 182196323#11 -36907508#2 23081473#6 23081473#7"/>
    </vehicle>
    <vehicle id="18" depart="27.00">
        <route edges="38758709#1 36965406#1 328836685#1 328836685#2 328836685#3 328836685#4 328836685#5 328836685#6 -251492658#23 -251492658#22 -251492658#21 -251492658#19 -251492658#18 -251492658#17 -251492658#16 -251492658#15 -251492658#14 -251492658#13 -251492658#12 -251492658#11 -251492658#10 -251492658#9 -251492658#8 -251492658#7 -251492658#6 -251492658#4 -251492658#3 -251492658#2 -251492658#1 -251492658#0 38757909#0 38757909#1 38757909#2 38757909#3 224618934#7 224618934#8 224618934#9"/>
    </vehicle>
    <vehicle id="19" depart="28.50">
        <route edges="36897656#35 -36897656#35 -36897656#34 -36897656#32 -36897656#31 -36897656#30 -36897656#29 -36897656#28 -36897656#26 -36897656#24 -36897656#23 -36897656#22 -36897656#21 -36897656#19 -36897656#17 -36897656#16 -36897656#14 -36897656#12 -36897656#11 -36897656#9 -36897656#8 -36897656#7 -36897656#6 -36897656#5 -36897656#4 -36897656#2 -36897656#0 461556532 148016888#0 22893740#0 22893740#1 22893740#2 154340361#0 52033011#0 52033011#4 52033011#5 52033011#6 52033011#7 52033011#8 52033011#9 38757907#0 38757907#1 38757907#3 38757907#4 38757907#5 38757905#3 208745497#0 -112028499#2"/>
    </vehicle>
    <vehicle id="20" depart="30.00">
        <route edges="-36907541#11 -36907541#10 -36907541#9 -36907541#8 -36907541#7 -36907541#5 -36907541#4 -36907541#3 -38541704 -36897656#30 -36897656#29 -36897656#28 -36897656#26 -36897656#24 -36897656#23 -36897656#22 -36897656#21 -36897656#19 -36897656#17 -36897656#16 -36897656#14 -36897656#12 -36897656#11 -36897656#9 -36897656#8 -36897656#7 -36897656#6 -36897656#5 -36897656#4 -36897656#2 -36897656#0 461556532 148016888#0 22893740#0 22893740#1 22893740#2 154340361#0 52033011#0 52033011#4 52033011#5 52033011#6 52033011#7 52033011#8 52033011#9 52033011#10 38757895#0 38757895#1 38757895#2 38757895#3 -38757905#0 -38757926#2 -38757926#1 -38757926#0 -38757924#2 -38757924#1 -38757924#0"/>
    </vehicle>
    <vehicle id="21" depart="31.50">
        <route edges="-1227730738#0 1379232589#1 1379232589#2 1379232589#3 1379232589#4 1379232589#5 1379232589#6 1379232589#8 1379232589#9 1379232589#10 1379232589#11 -23030050#2 -23030050#1 -23030050#0 50128404#3 23029249#0 23029249#1 23029249#2 91890599#1 23029282#2 23029282#3 23029282#5 174482797#0 174482797#1 174482797#2 174482797#3 285367759#1 285367759#2 285367759#3 285367759#5 1151692614 764329019#0 764329019#1 239572010#1 239572010#2 239572010#3 239572010#5 239572010#6 239572010#7 239572010#8 239572010#10 763290548#0 763290548#1 763290548#2 763290548#3 763290548#4 763290548#6 763290548#7 1096797091#2 1096797091#3 764406992 23029716#1 23029284#0 23029284#1 23029284#3 23029284#4 23029284#5 28126801#1 28126801#2 1183372579#0 1183372579#1 1183372579#2 37763920 -37763920"/>
    </vehicle>
    <vehicle id="22" depart="33.00">
        <route edges="-164042296#0 -38762870#6 -38762870#5 -38762870#4 -38762870#3 -38762870#2 -38762870#1 -38762870#0 -38762869#8 -38762869#7 -38762869#6 -38762869#5 -38762869#4 -38762869#2 -38762869#1 -38762869#0 -1379232589#8 -1379232589#6 -1379232589#5 -1379232589#4 -1379232589#3 -1379232589#2 -1379232589#1 -1379232589#0 736430942#0 132191814#0 132191814#1 132191814#2 132191814#4 132191814#5 132191814#6 132191814#7 132191814#8 132191814#9 152193867 328836685#2 328836685#3 38757904#0 38757904#1 38757904#2 38757904#3 38757904#4 38757904#5 38757904#6 38757895#3 38757905#1 38757905#2 38757905#3 -38757906#1"/>
    </vehicle>
    <vehicle id="23" depart="34.50">
        <route edges="23515739#2 23515739#3 23515739#4 234946738#5 234946738#6 234946738#7 234946738#8 1184391536#0 1184391536#1 1184391536#2 391160931#2 391160931#3 391160931#4 391160931#5 391160931#6 391160931#7 391160931#8 391160931#9 391160931#10 391160931#11 391160931#12 391160931#13 391160931#14 391160931#16 1347255639 1312841562#0 1312841562#1 1312841563 52032727#0 52032727#1 638928391 1263537981#1 1263537981#2 1263537980 638928392#0 638928392#1 638928392#2 638928392#3 638928392#4 638928392#5 638928392#6 638928392#8 638928392#9 638928392#10 638928392#11 638928392#12 638928392#13 638928392#14 638928392#15 638928392#16 638928392#17 638928392#18 638928392#19 781001561#1 781001561#4 22893740#0 22893740#1 22893740#2 154340361#0 154340361#1 1315881698#0 1315881698#1 23076955#1 23076955#2 1091198034#1 1091198034#2 1091198034#3"/>
    </vehicle>
    <vehicle id="24" depart="36.00">
        <route edges="-38541555#0 38541555#0 38541555#2 38541558#1 38541558#2 38541558#4 38541558#5 38541558#6 38541558#8 38541558#10 36907545#11 111867007#0 111867007#1 111867007#3 111867007#5 111867007#6 1259465066 1214076610#2 37898955#0-AddedOnRampEdge 37898955#0 461556532 148016888#0 22893740#0 22893740#1 22893740#2 154340361#0 154340361#1 154340361#2 154340361#3 154340361#5 154340361#6 154340361#7 154340361#9 36882313 1205171800#0 1109911794 553253480#0 553253480#1 1148155464 1238638852#0 1238638852#1 1238638852#2 1238638852#3 1238638852#4 1238638852#5 1238638852#7 1238638852#8 1356841810#0 112657835#0 112657835#1 112657835#2 553253478#1"/>
    </vehicle>
    <vehicle id="25" depart="37.50">
        <route edges="251492658#22 251492658#23 328836685#8 328836685#10 328836685#11 328836685#12 1154162811#0 763282652#1 1379232589#0 1379232589#1 1379232589#2 1379232589#3 1379232589#4 1379232589#5 1379232589#6 1379232589#8 1379232589#9 1379232589#10 1379232589#11 -23030050#2 -23030050#1 -23030050#0 50128404#3 23029249#0 23029249#1 23029249#2 91890599#1 23029282#2 23029282#3 23029282#5 23029282#7 23029282#9 23030059#1 23030059#2 23030059#3 23030059#4"/>
    </vehicle>
    <vehicle id="26" depart="39.00">
        <route edges="-328839327#1 -328839327#0 328839327#0 328839327#1 328839327#2 328839327#3 23029284#12 239572011#4 239572011#6 171887405#1 171887405#2 171887405#4 171887405#5 171887405#6 171887405#7 171887405#8 171887405#9 171887405#12 171887405#13 171887405#15 171887405#16 171887405#17 171887405#18 171887405#19 171887405#20 171887405#21 763175328#0 763175328#2 763175328#3 763175328#4 763175329#0 763175329#1 763175329#2 763175329#3 763175329#5 763175329#6 1452617367 1452617368 498553874#0 498553874#1 375964868#1 375964868#2 375964868#3 375964868#4 375964868#5 375964868#6 375964868#7 375964868#8 224618934#1 224618934#2 224618934#3 224618934#5 224618934#6 224618934#7 224618934#8 224618934#9 224618934#10 1311251824#0 1311251823#0 1311251823#1 148016866#0 148016866#1 148016873#0 461556532 23076927#0 23076927#3 23076927#5 -1065391880#0 36907510#4 36907510#5 36907510#6 36907510#7"/>
    </vehicle>
    <vehicle id="27" depart="40.50">
        <route edges="-28126801#10 -28126801#9 -28126801#8 -28126801#7 -28126801#6 -28126801#5 -28126801#3 -28126801#2 -28126801#1 23029284#8 23029284#9 23029284#11 23029284#12 239572011#4 239572011#6 171887405#1 171887405#2 171887405#4 171887405#5 171887405#6 171887405#7 171887405#8 171887405#9 171887405#12 171887405#13 171887405#15 171887405#16 171887405#17 171887405#18 171887405#19 171887405#20 171887405#21 763175328#0 763175328#2 763175328#3 763175328#4 763175329#0 763175329#1 763175329#2 763175329#3 763175329#5 763175329#6 1452617367 1452617368 498553874#0 498553874#1 375964868#1 375964868#2 375964868#3 375964868#4 375964868#5 375964868#6 375964868#7 375964868#8 224618934#1 224618934#2 224618934#3 224618934#5 224618934#6 224618934#7 224618934#8 224618934#9 224618934#10 1311251824#0 1311251823#0 1311251823#1 148016866#0 148016866#1 36897704#0 36897704#1 36897704#2 638928393#0 638928393#1 638928393#3 36897679#1 688824223#0 161984942 23076921#0 23076921#1 1347949977 36897655#0 36897655#1 36897655#2 -38541560#2 1094730012#0"/>
    </vehicle>
    <vehicle id="28" depart="42.00">
        <route edges="91890608#4 23038848#2 23038848#3 23038848#4 23038848#5 23038848#6 -995260026#1 -995260026#0 174482797#0 174482797#1 174482797#2 174482797#3 285367759#1 285367759#2 285367759#3 285367759#5 1151692614 764329019#0 764329019#1 239572010#1 239572010#2 239572010#3 239572010#5 239572010#6 239572010#7 239572010#8 239572010#10 239572011#4 43469902#0 43469902#1 -37763927#1 24296042#3"/>
    </vehicle>
    <vehicle id="29" depart="43.50">
        <route edges="175392001#1 175391972#1 175391972#3 175391972#4 175391972#5 175391972#6 175391972#7 175391972#8 132191814#5 132191814#6 132191814#7 132191814#8 132191814#9 152193867 328836685#2 328836685#3 328836685#4 328836685#5 328836685#6 -251492658#23 -251492658#22 -251492658#21 -251492658#19 -251492658#18 -251492658#17 -251492658#16 -251492658#15 -251492658#14 -251492658#13 -251492658#12 -251492658#11 -251492658#10 -251492658#9 38757895#7 38757895#8 251513712#0 251513712#1 375964868#6 375964868#7 133467629 1308725870#4 36852351#0 36852351#1 36852351#3 36852351#4"/>
    </vehicle>
    <vehicle id="30" depart="45.00">
        <route edges="38757909#0 -38757929#7 -38757929#6 38757930#1 251492658#2 251492658#3 251492658#4 251492658#6 251492658#7 251492658#8 251492658#9 251492658#10 251492658#11 251492658#12 251492658#13 251492658#14 251492658#15 251492658#16 251492658#17 251492658#18 251492658#19 251492658#21 251492658#22 251492658#23 328836685#8 328836685#10 328836685#11 328836685#12 1154162811#0 763282652#1 36965407#1"/>
    </vehicle>
    <vehicle id="31" depart="46.50">
        <route edges="-36907541#5 -36907541#4 -36907541#3 -38541704 -36897656#30 -36897656#29 -36897656#28 -36897656#26 -36897656#24 -36897656#23 -36897656#22 -36897656#21 -36897656#19 -36897656#17 -36897656#16 -36897656#14 -36897656#12 -36897656#11 -36897656#9 -36897656#8 -36897656#7 -36897656#6 -36897656#5 -36897656#4 -36897656#2 -36897656#0 461556532 148016888#0 22893740#0 22893740#1 22893740#2 154340361#0 52033011#0 52033011#4 52033011#5 52033011#6 52033011#7 52033011#8 52033011#9 52033011#10 52033011#11 52033011#12 52033011#13 52033011#14 52033011#15 52033011#16 52033011#17 52033011#18 52033011#19 52033011#20 52033011#21 1347255640#0 1347255640#1 328836685#1 328836685#2 328836685#3 328836685#4 328836685#5 328836685#6 328836685#8 328836685#10 328836685#11 328836685#12 1154162811#0 1098787301#1 -1098787301#1"/>
    </vehicle>
    <vehicle id="32" depart="48.00">
        <route edges="-38757939#0 328836685#3 328836685#4 328836685#5 328836685#6 -251492658#23 -251492658#22 -251492658#21 -251492658#19 -251492658#18 -251492658#17 -251492658#16 -251492658#15 -251492658#14 -251492658#13 -251492658#12 -251492658#11 -251492658#10 -251492658#9 -38757895#6"/>
    </vehicle>
    <vehicle id="33" depart="49.50">
        <route edges="-36907529#14 -36907529#13 -36907529#12 -36907529#10 -36907529#9 -36907529#8 -36907529#7 -36907529#5 -36907529#4 -36907529#3 -36907529#1 -36907529#0 36897656#26 -36907523 -988901291#1 23076927#14 23076927#15 23076927#16 23076927#17 391160931#0 391160931#1 391160931#2 391160931#3 391160931#4 391160931#5 391160931#6 391160931#7 391160931#8 391160931#9 391160931#10 391160931#11 391160931#12 391160931#13 391160931#14 391160931#16 1347255639 1312841562#0 1312841562#1 1312841563 52032727#0 52032727#1 638928391 1263537981#1 1263537981#2 1263537980 638928392#0 638928392#1 638928392#2 638928392#3 638928392#4"/>
    </vehicle>
    <vehicle id="34" depart="51.00">
        <route edges="38766664#2 -48842836#1 -48842836#0 1379232589#11 -23030050#2 -23030050#1 -23030050#0 50128404#3 23029249#0 23029249#1 23029249#2 91890599#1 23029282#2 23029282#3 23029282#5 174482797#0 174482797#1 174482797#2 174482797#3 285367759#1 285367759#2 285367759#3 131663296#0 -1094098362 -38766673#0"/>
    </vehicle>
    <vehicle id="35" depart="52.50">
        <route edges="28126801#8 28126801#9 28126801#10 -28126801#10 -28126801#9 -28126801#8 -28126801#7 -28126801#6 -28126801#5 -28126801#3 -28126801#2 -28126801#1 23029284#8 23029284#9 23029284#11 23029284#12 239572011#4 239572011#6 171887405#1 171887405#2 -131663296#2 -131663296#1 -131663296#0 -1127959511 -1095458736 38766672#0 -23029282#10 -23029282#9 -23029282#7 995260026#0 995260026#1 995260026#3 995260026#4 -23038845#2 1095458730"/>
    </vehicle>
    <vehicle id="36" depart="54.00">
        <route edges="48166762#22 48166762#23 48166762#24 1049316088#1 1049316088#2 1308654687#0 1308654687#2 161416663#1 1101945532 766406223#0 766406223#2 1373661996 46728567#0 46728567#1 46728567#2 46728567#3 46728567#4 46728567#5 46728567#6 46728567#8 46728567#9 -45308260#10 -45308260#9 -45308260#8 -45308260#7 -45308260#6 -45308260#5 -45308260#3 -45308260#2 -45308260#1 23029710#1 23029710#2 23029710#3 23029710#4 23029710#5 23029710#6 23029710#7 23029710#8 23029710#9 23029710#11 1238638853#2 1148155466#0 1148155466#2 1109911786#0 1109911786#1 36882311#0 36882311#1 36882311#2 36882311#3 36882311#4 36882311#5 36882311#6 36882311#7 1091198032#0 1091198032#1 1091198032#2 1091198032#3 399001079#0 -363449251#2 -363449251#1 1064628344#0 1064628344#1 1182221971#1 1312841563 363477540#0 363477540#1 1182221973#1 1182221973#2"/>
    </vehicle>
    <vehicle id="37" depart="55.50">
        <route edges="-38541551#7 38541551#7 -38541552#4 -38541552#3"/>
    </vehicle>
    <vehicle id="38" depart="57.00">
        <route edges="175392015#5 175392018#2 175392010#1 175392010#2 -175392014#3 8687347 182196323#0 182196323#1 182196323#2 182196323#3 182196323#4 182196323#5 182196323#6 182196323#7 182196323#9 182196323#10 182196323#11 763175324#1 763175324#2 763175324#3 763175324#4 688824222#0 763284659#0 763284659#2 763284659#3 763284659#4 1214076611 37898955#0-AddedOnRampEdge 37898955#0 36897656#0 36897656#1 36897656#4 36897656#5 36897656#6 36897656#7 36897656#8 36897656#9 36897656#11 36897656#12 36897656#14 36897656#16 36897656#17 36897656#19 -38541583"/>
    </vehicle>
    <vehicle id="39" depart="58.50">
        <route edges="23029281#5 23029281#6 23029281#7 23029281#9 23029281#11 171887405#12 171887405#13 171887405#15 171887405#16 171887405#17 171887405#18 171887405#19 171887405#20 171887405#21 763175328#0 763175328#2 763175328#3 763175328#4 763175329#0 763175329#1 763175329#2 763175329#3 763175329#5 763175329#6 1452617367 1452617368 498553874#0 498553874#1 375964868#1 375964868#2 375964868#3 375964868#4 375964868#5 375964868#6 375964868#7 375964868#8 224618934#1 224618934#2 224618934#3 224618934#5 224618934#6 224618934#7 36851745#0 36851745#1 154340361#5 154340361#6 154340361#7 154340361#9 36882313 1205171800#0 1109911794 553253480#0 553253480#1 1148155464 1238638852#0 1238638852#1 1238638852#2 1238638852#3 1238638852#4 1238638852#5 1238638852#7 1238638852#8 1356841810#0 45308260#1 45308260#2 45308260#3"/>
    </vehicle>
    <vehicle id="40" depart="60.00">
        <route edges="1094732593#1 -1094732594 38541568#2 -38541554 36907529#10 111867015 38541567#0 38541567#1 -36907553#1 -36907553#0 -36907552#1 -36907550#1 -36907550#0"/>
    </vehicle>
    <vehicle id="41" depart="61.50">
        <route edges="995260026#4 -995260026#4 -995260026#3 -995260026#1 -995260026#0 174482797#0 174482797#1 174482797#2 174482797#3 285367759#1 285367759#2 285367759#3 285367759#5 1151692614 764329019#0 764329019#1 239572010#1 239572010#2 239572010#3 239572010#5 239572010#6 239572010#7 239572010#8 239572010#10 763290548#0 763290548#1 763290548#2 763290548#3 763290548#4 763290548#6 763290548#7 1307397842#1 1307397842#3 1307397842#4 23029696#1 23029696#2 23029696#3 23029696#4 23029696#5 23029696#6 23029696#7 1106057235#0 1106057235#1 1106057236#2 1106057236#3 1106057236#4 1106057236#5 1106057236#6 23029699#0 23029699#1 23029699#2 23029699#3 23029699#4 1384492968#1 1384492968#2 1049316088#1 1049316088#2 1308654687#0 1308654687#2 161416663#1 1101945532 766406223#0 766406223#2 1373661996"/>
    </vehicle>
    <vehicle id="42" depart="63.00">
        <route edges="-1361746443#1 111867007#5 111867007#6 52244624#0 638928393#0 638928393#1 638928393#3 36897679#1 688824223#0 688824223#1 688824223#2 688824223#3 688824223#4 688824223#5 172851206#0 172851206#1 172851206#2 172851206#3 462585098#0 462585098#1 -172891306#3 -172891306#2 -172891306#0 172891316#1 -112380266#2 -112380266#1"/>
    </vehicle>
    <vehicle id="43" depart="64.50">
        <route edges="-175391972#3 175392010#0 175392010#1 175392010#2 175392014#4 763175325#5 152582846#0 152582846#1 23081479#0 23081479#1 -1067081399 -23134709#4 -23134709#3 -23134709#2 -23134709#1 -23134709#0 23134709#0 23134709#1"/>
    </vehicle>
    <vehicle id="44" depart="66.00">
        <route edges="37763930#0 37763929#2 37763929#3 -28126801#3 -28126801#2 -28126801#1 23029284#8 23029284#9 23029284#11 23029284#12 239572011#4 239572011#6 171887405#1 171887405#2 171887405#4 171887405#5 171887405#6 171887405#7 171887405#8 171887405#9 171887405#12 171887405#13 171887405#15 171887405#16 171887405#17 171887405#18 171887405#19 171887405#20 171887405#21 763175328#0 763175328#2 763175328#3 763175328#4 763175329#0 763175329#1 763175329#2 763175329#3 763175329#5 763175329#6 1452617367 1452617368 498553874#0 498553874#1 375964868#1 375964868#2 375964868#3 375964868#4 375964868#5 375964868#6 375964868#7 375964868#8 224618934#1 224618934#2 224618934#3 224618934#5 224618934#6 224618934#7 224618934#8 224618934#9 224618934#10 1311251824#0 1311251823#0 1311251823#1 148016866#0 148016866#1 36897704#0 36897704#1 36897704#2 638928393#0 638928393#1 638928393#3 36897679#1 688824223#0 161984942 23076921#0 23076921#1 1347949977 111867007#0 111867007#1"/>
    </vehicle>
    <vehicle id="45" depart="67.50">